---- qbsp / ericw-tools v0.18.1 ----
Input file: devilsrun.map
Output file: devilsrun.bsp

---- LoadMapFile ----
*** WARNING 06: No info_player_deathmatch entities in level
         2229 faces
          272 brushes
           17 entities
           12 unique texnames
          544 texinfo

Opened WAD: C:/Users/jackb/Documents/Devils_Run/wads/prototype_1_2.wad
Processing hull 0...
---- Brush_LoadEntity ----
          261 brushes
          989 planes
---- CSGFaces ----
         2163 brushfaces
         3841 csgfaces
         3863 mergedfaces
---- SolidBSP ----
         4075 split nodes
         1201 solid leafs
         2531 empty leafs
          344 water leafs
            0 detail leafs
            0 detail illusionary leafs
            0 detail fence leafs
            0 illusionary visblocker leafs
        10249 leaffaces
         9098 nodefaces
---- Portalize ----
         2875 vis leafs
         2875 vis clusters
         8826 vis portals
---- FillOutside ----
*** WARNING 10: Reached occupant at (268 -2608 -188), no filling performed.
Leak file written to devilsrun.pts
---- MakeFaceEdges ----
---- GrowRegions ----
Processing hull 1...
*** WARNING 19: No entities in empty space -- no filling performed (hull 1)
Processing hull 2...
*** WARNING 19: No entities in empty space -- no filling performed (hull 2)
---- WriteBSPFile ----
Wrote devilsrun.bsp
         2505 planes            50100
        10045 vertexes         120540
         4141 nodes             99384
          470 texinfo           18800
         9180 faces            183600
         6499 clipnodes         51992
         2942 leafs             82376
        10331 marksurfaces      20662
        36173 surfedges        144692
        24500 edges             98000
           14 textures         178780
              lightdata             0
              visdata               0
              entdata            1287

0.913 seconds elapsed
Peak memory usage: 38262242 (36.5M)
