---- qbsp / ericw-tools v0.18.1 ----
Input file: devilsrun.map
Output file: devilsrun.bsp

---- LoadMapFile ----
*** WARNING 06: No info_player_deathmatch entities in level
         2606 faces
          351 brushes
           83 entities
           11 unique texnames
          623 texinfo

Opened WAD: C:/Users/jackb/Documents/Devils_Run/wads/prototype_1_2.wad
Processing hull 0...
---- Brush_LoadEntity ----
          322 brushes
          911 planes
---- CSGFaces ----
         2432 brushfaces
         4044 csgfaces
         3823 mergedfaces
---- SolidBSP ----
         4353 split nodes
         1336 solid leafs
         2647 empty leafs
          371 water leafs
            0 detail leafs
            0 detail illusionary leafs
            0 detail fence leafs
            0 illusionary visblocker leafs
        10388 leaffaces
         9314 nodefaces
---- Portalize ----
         3018 vis leafs
         3018 vis clusters
         8978 vis portals
---- FillOutside ----
*** WARNING 10: Reached occupant at (268 -2608 -180), no filling performed.
Leak file written to devilsrun.pts
---- MakeFaceEdges ----
---- GrowRegions ----
Processing hull 1...
Processing hull 2...
---- WriteBSPFile ----
Wrote devilsrun.bsp
         2165 planes            43300
        10603 vertexes         127236
         4527 nodes            108648
          545 texinfo           21800
         9566 faces            191320
         3464 clipnodes         27712
         3193 leafs             89404
        10640 marksurfaces      21280
        37689 surfedges        150756
        24988 edges             99952
           13 textures         156976
              lightdata             0
              visdata               0
              entdata            7184

1.246 seconds elapsed
Peak memory usage: 37033520 (35.3M)
