---- qbsp / ericw-tools v0.18.1 ----
Input file: devilsrun.map
Output file: devilsrun.bsp

---- LoadMapFile ----
*** WARNING 06: No info_player_deathmatch entities in level
         1251 faces
          175 brushes
            7 entities
           10 unique texnames
          325 texinfo

Opened WAD: C:/Users/jackb/Documents/Devils_Run/wads/prototype_1_2.wad
Processing hull 0...
---- Brush_LoadEntity ----
          170 brushes
          473 planes
---- CSGFaces ----
         1221 brushfaces
         2047 csgfaces
         1937 mergedfaces
---- SolidBSP ----
         2154 split nodes
          721 solid leafs
         1193 empty leafs
          241 water leafs
            0 detail leafs
            0 detail illusionary leafs
            0 detail fence leafs
            0 illusionary visblocker leafs
         5526 leaffaces
         4824 nodefaces
---- Portalize ----
         1434 vis leafs
         1434 vis clusters
         4147 vis portals
---- FillOutside ----
*** WARNING 10: Reached occupant at (280 -1680 -184), no filling performed.
Leak file written to devilsrun.pts
---- MakeFaceEdges ----
---- GrowRegions ----
Processing hull 1...
*** WARNING 19: No entities in empty space -- no filling performed (hull 1)
Processing hull 2...
*** WARNING 19: No entities in empty space -- no filling performed (hull 2)
---- WriteBSPFile ----
Wrote devilsrun.bsp
         1177 planes            23540
         5371 vertexes          64452
         2184 nodes             52416
          277 texinfo           11080
         4854 faces             97080
         3505 clipnodes         28040
         1465 leafs             41020
         5556 marksurfaces      11112
        19048 surfedges         76192
        12557 edges             50228
           10 textures         169084
              lightdata             0
              visdata               0
              entdata             429

0.507 seconds elapsed
Peak memory usage: 20306988 (19.4M)
