---- qbsp / ericw-tools v0.18.1 ----
Input file: devilsrun.map
Output file: devilsrun.bsp

---- LoadMapFile ----
*** WARNING 06: No info_player_deathmatch entities in level
         2605 faces
          351 brushes
           61 entities
           11 unique texnames
          622 texinfo

Opened WAD: C:/Users/jackb/Documents/Devils_Run/wads/prototype_1_2.wad
Processing hull 0...
---- Brush_LoadEntity ----
          323 brushes
          913 planes
---- CSGFaces ----
         2437 brushfaces
         4051 csgfaces
         3827 mergedfaces
---- SolidBSP ----
         4322 split nodes
         1307 solid leafs
         2643 empty leafs
          373 water leafs
            0 detail leafs
            0 detail illusionary leafs
            0 detail fence leafs
            0 illusionary visblocker leafs
        10451 leaffaces
         9354 nodefaces
---- Portalize ----
         3016 vis leafs
         3016 vis clusters
         9003 vis portals
---- FillOutside ----
*** WARNING 10: Reached occupant at (268 -2608 -180), no filling performed.
Leak file written to devilsrun.pts
---- MakeFaceEdges ----
---- GrowRegions ----
Processing hull 1...
Processing hull 2...
---- WriteBSPFile ----
Wrote devilsrun.bsp
         2164 planes            43280
        10638 vertexes         127656
         4490 nodes            107760
          544 texinfo           21760
         9600 faces            192000
         3367 clipnodes         26936
         3185 leafs             89180
        10697 marksurfaces      21394
        37823 surfedges        151292
        25040 edges            100160
           13 textures         156976
              lightdata             0
              visdata               0
              entdata            5854

1.054 seconds elapsed
Peak memory usage: 36552534 (34.9M)
