---- qbsp / ericw-tools v0.18.1 ----
Input file: devilsrun.map
Output file: devilsrun.bsp

---- LoadMapFile ----
*** WARNING 06: No info_player_deathmatch entities in level
         3404 faces
          483 brushes
          369 entities
           52 unique texnames
          858 texinfo

Opened WAD: C:/Users/jackb/Documents/Devils_Run/wads/prototype_1_2.wad
Opened WAD: C:/Users/jackb/Documents/Devils_Run/wads/START.WAD
Processing hull 0...
---- Brush_LoadEntity ----
          447 brushes
         1074 planes
---- CSGFaces ----
         3188 brushfaces
         4913 csgfaces
         4686 mergedfaces
---- SolidBSP ----
         6621 split nodes
         2219 solid leafs
         3933 empty leafs
          470 water leafs
            0 detail leafs
            0 detail illusionary leafs
            0 detail fence leafs
            0 illusionary visblocker leafs
        14399 leaffaces
        12893 nodefaces
---- Portalize ----
         4403 vis leafs
         4403 vis clusters
        13009 vis portals
---- FillOutside ----
*** WARNING 10: Reached occupant at (-1096 -2760 -568), no filling performed.
Leak file written to devilsrun.pts
---- MakeFaceEdges ----
---- GrowRegions ----
Processing hull 1...
*** WARNING 12: New portal was clipped away in CutNodePortals_r near (1399.656 -2590.304 -193.983)
*** WARNING 10: Reached occupant at (4000 -472 232), no filling performed.
Processing hull 2...
*** WARNING 10: Reached occupant at (612 -1684 80), no filling performed.
*** WARNING 16: Texture __TB_empty not found
---- WriteBSPFile ----
Wrote devilsrun.bsp
         2754 planes            55080
        14700 vertexes         176400
         6837 nodes            164088
          680 texinfo           27200
        13119 faces            262380
         9966 clipnodes         79728
         4620 leafs            129360
        14624 marksurfaces      29248
        51835 surfedges        207340
        34313 edges            137252
           54 textures         447764
              lightdata             0
              visdata               0
              entdata           29714

1.306 seconds elapsed
Peak memory usage: 54981592 (52.4M)
